Circuit: * Z:\home\victor\Documents\Projekt\teensyBenchPower\Hardware\LtSpice Simulations\teensySMPS.asc

Direct Newton iteration failed to find .op point.  (Use ".option noopiter" to skip.)
Starting Gmin stepping
Gmin = 10
Gmin = 1.07374
Gmin = 0.115292
Gmin = 0.0123794
Gmin = 0.00132923
Gmin = 0.000142725
Gmin = 1.5325e-005
Gmin = 1.6455e-006
Gmin = 1.76685e-007
Gmin = 1.89714e-008
Gmin = 2.03704e-009
Gmin = 2.18725e-010
Gmin = 2.34854e-011
Gmin = 2.52173e-012
Gmin = 2.70769e-013
Gmin = 0
Gmin stepping succeeded in finding the operating point.

Heightened Def Con from 0.00183906 to 0.00183906

Date: Fri Mar 27 22:34:28 2015
Total elapsed time: 39.943 seconds.

tnom = 27
temp = 27
method = modified trap
totiter = 1228555
traniter = 1228136
tranpoints = 332689
accept = 240396
rejected = 92294
matrix size = 57
fillins = 26
solver = Normal
Matrix Compiler1: 6.13 KB object code size  4.0/2.4/[1.7]
Matrix Compiler2: off  [2.6]/2.7/2.8


